* NGSPICE file created from user_analog_project_wrapper.ext - technology: sky130A

.subckt sky130_fd_pr__pfet_01v8_2YXTXR a_n3000_n3097# w_n3196_n3219# a_3000_n3000#
+ a_n3058_n3000#
X0 a_3000_n3000# a_n3000_n3097# a_n3058_n3000# w_n3196_n3219# sky130_fd_pr__pfet_01v8 ad=8.7e+12p pd=6.058e+07u as=8.7e+12p ps=6.058e+07u w=3e+07u l=3e+07u
.ends

.subckt moscap2
Xsky130_fd_pr__pfet_01v8_2YXTXR_0[0] m1_0_8000# li_800_8200# li_800_8200# li_800_8200#
+ sky130_fd_pr__pfet_01v8_2YXTXR
Xsky130_fd_pr__pfet_01v8_2YXTXR_0[1] m1_0_8000# li_800_8200# li_800_8200# li_800_8200#
+ sky130_fd_pr__pfet_01v8_2YXTXR
Xsky130_fd_pr__pfet_01v8_2YXTXR_0[2] m1_0_8000# li_800_8200# li_800_8200# li_800_8200#
+ sky130_fd_pr__pfet_01v8_2YXTXR
Xsky130_fd_pr__pfet_01v8_2YXTXR_0[3] m1_0_8000# li_800_8200# li_800_8200# li_800_8200#
+ sky130_fd_pr__pfet_01v8_2YXTXR
Xsky130_fd_pr__pfet_01v8_2YXTXR_0[4] m1_0_8000# li_800_8200# li_800_8200# li_800_8200#
+ sky130_fd_pr__pfet_01v8_2YXTXR
.ends

.subckt sky130_fd_pr__cap_mim_m3_2_LJ5JLG m4_n3351_n3100# c2_n3251_n3000#
X0 c2_n3251_n3000# m4_n3351_n3100# sky130_fd_pr__cap_mim_m3_2 l=3e+07u w=3e+07u
.ends

.subckt areamimc2
Xsky130_fd_pr__cap_mim_m3_2_LJ5JLG_0[0] m4_1000_8200# m5_0_8000# sky130_fd_pr__cap_mim_m3_2_LJ5JLG
Xsky130_fd_pr__cap_mim_m3_2_LJ5JLG_0[1] m4_1000_8200# m5_0_8000# sky130_fd_pr__cap_mim_m3_2_LJ5JLG
Xsky130_fd_pr__cap_mim_m3_2_LJ5JLG_0[2] m4_1000_8200# m5_0_8000# sky130_fd_pr__cap_mim_m3_2_LJ5JLG
Xsky130_fd_pr__cap_mim_m3_2_LJ5JLG_0[3] m4_1000_8200# m5_0_8000# sky130_fd_pr__cap_mim_m3_2_LJ5JLG
Xsky130_fd_pr__cap_mim_m3_2_LJ5JLG_0[4] m4_1000_8200# m5_0_8000# sky130_fd_pr__cap_mim_m3_2_LJ5JLG
.ends

.subckt sky130_fd_pr__cap_mim_m3_2_FJK8MM.gds_28.0_8.0 c2_100_100# m4_0_0#
X0 c2_100_100# m4_0_0# sky130_fd_pr__cap_mim_m3_2 l=2e+06u w=2e+06u
.ends

.subckt sky130_fd_pr__cap_mim_m3_2_FJK8MM.gds_12.0_16.0 c2_100_100# m4_0_0#
X0 c2_100_100# m4_0_0# sky130_fd_pr__cap_mim_m3_2 l=2e+06u w=2e+06u
.ends

.subckt sky130_fd_pr__cap_mim_m3_2_FJK8MM.gds_0_20.0 c2_100_100# m4_0_0#
X0 c2_100_100# m4_0_0# sky130_fd_pr__cap_mim_m3_2 l=2e+06u w=2e+06u
.ends

.subckt sky130_fd_pr__cap_mim_m3_2_FJK8MM.gds_32.0_0 c2_100_100# m4_0_0#
X0 c2_100_100# m4_0_0# sky130_fd_pr__cap_mim_m3_2 l=2e+06u w=2e+06u
.ends

.subckt sky130_fd_pr__cap_mim_m3_2_FJK8MM.gds_24.0_8.0 c2_100_100# m4_0_0#
X0 c2_100_100# m4_0_0# sky130_fd_pr__cap_mim_m3_2 l=2e+06u w=2e+06u
.ends

.subckt sky130_fd_pr__cap_mim_m3_2_FJK8MM.gds_16.0_4.0 c2_100_100# m4_0_0#
X0 c2_100_100# m4_0_0# sky130_fd_pr__cap_mim_m3_2 l=2e+06u w=2e+06u
.ends

.subckt sky130_fd_pr__cap_mim_m3_2_FJK8MM.gds_16.0_12.0 c2_100_100# m4_0_0#
X0 c2_100_100# m4_0_0# sky130_fd_pr__cap_mim_m3_2 l=2e+06u w=2e+06u
.ends

.subckt sky130_fd_pr__cap_mim_m3_2_FJK8MM.gds_20.0_8.0 c2_100_100# m4_0_0#
X0 c2_100_100# m4_0_0# sky130_fd_pr__cap_mim_m3_2 l=2e+06u w=2e+06u
.ends

.subckt sky130_fd_pr__cap_mim_m3_2_FJK8MM.gds_32.0_20.0 c2_100_100# m4_0_0#
X0 c2_100_100# m4_0_0# sky130_fd_pr__cap_mim_m3_2 l=2e+06u w=2e+06u
.ends

.subckt sky130_fd_pr__cap_mim_m3_2_FJK8MM.gds_28.0_28.0 c2_100_100# m4_0_0#
X0 c2_100_100# m4_0_0# sky130_fd_pr__cap_mim_m3_2 l=2e+06u w=2e+06u
.ends

.subckt sky130_fd_pr__cap_mim_m3_2_FJK8MM.gds_12.0_4.0 c2_100_100# m4_0_0#
X0 c2_100_100# m4_0_0# sky130_fd_pr__cap_mim_m3_2 l=2e+06u w=2e+06u
.ends

.subckt sky130_fd_pr__cap_mim_m3_2_FJK8MM.gds_4.0_32.0 c2_100_100# m4_0_0#
X0 c2_100_100# m4_0_0# sky130_fd_pr__cap_mim_m3_2 l=2e+06u w=2e+06u
.ends

.subckt sky130_fd_pr__cap_mim_m3_2_FJK8MM.gds_12.0_28.0 c2_100_100# m4_0_0#
X0 c2_100_100# m4_0_0# sky130_fd_pr__cap_mim_m3_2 l=2e+06u w=2e+06u
.ends

.subckt sky130_fd_pr__cap_mim_m3_2_FJK8MM.gds_0_32.0 c2_100_100# m4_0_0#
X0 c2_100_100# m4_0_0# sky130_fd_pr__cap_mim_m3_2 l=2e+06u w=2e+06u
.ends

.subckt sky130_fd_pr__cap_mim_m3_2_FJK8MM.gds_16.0_24.0 c2_100_100# m4_0_0#
X0 c2_100_100# m4_0_0# sky130_fd_pr__cap_mim_m3_2 l=2e+06u w=2e+06u
.ends

.subckt sky130_fd_pr__cap_mim_m3_2_FJK8MM.gds_32.0_32.0 c2_100_100# m4_0_0#
X0 c2_100_100# m4_0_0# sky130_fd_pr__cap_mim_m3_2 l=2e+06u w=2e+06u
.ends

.subckt sky130_fd_pr__cap_mim_m3_2_FJK8MM.gds_24.0_16.0 c2_100_100# m4_0_0#
X0 c2_100_100# m4_0_0# sky130_fd_pr__cap_mim_m3_2 l=2e+06u w=2e+06u
.ends

.subckt sky130_fd_pr__cap_mim_m3_2_FJK8MM.gds_8.0_8.0 c2_100_100# m4_0_0#
X0 c2_100_100# m4_0_0# sky130_fd_pr__cap_mim_m3_2 l=2e+06u w=2e+06u
.ends

.subckt sky130_fd_pr__cap_mim_m3_2_FJK8MM.gds_28.0_12.0 c2_100_100# m4_0_0#
X0 c2_100_100# m4_0_0# sky130_fd_pr__cap_mim_m3_2 l=2e+06u w=2e+06u
.ends

.subckt sky130_fd_pr__cap_mim_m3_2_FJK8MM.gds_4.0_8.0 c2_100_100# m4_0_0#
X0 c2_100_100# m4_0_0# sky130_fd_pr__cap_mim_m3_2 l=2e+06u w=2e+06u
.ends

.subckt sky130_fd_pr__cap_mim_m3_2_FJK8MM.gds_28.0_4.0 c2_100_100# m4_0_0#
X0 c2_100_100# m4_0_0# sky130_fd_pr__cap_mim_m3_2 l=2e+06u w=2e+06u
.ends

.subckt sky130_fd_pr__cap_mim_m3_2_FJK8MM.gds_32.0_8.0 c2_100_100# m4_0_0#
X0 c2_100_100# m4_0_0# sky130_fd_pr__cap_mim_m3_2 l=2e+06u w=2e+06u
.ends

.subckt sky130_fd_pr__cap_mim_m3_2_FJK8MM.gds_12.0_12.0 c2_100_100# m4_0_0#
X0 c2_100_100# m4_0_0# sky130_fd_pr__cap_mim_m3_2 l=2e+06u w=2e+06u
.ends

.subckt sky130_fd_pr__cap_mim_m3_2_FJK8MM.gds_24.0_4.0 c2_100_100# m4_0_0#
X0 c2_100_100# m4_0_0# sky130_fd_pr__cap_mim_m3_2 l=2e+06u w=2e+06u
.ends

.subckt sky130_fd_pr__cap_mim_m3_2_FJK8MM.gds_24.0_28.0 c2_100_100# m4_0_0#
X0 c2_100_100# m4_0_0# sky130_fd_pr__cap_mim_m3_2 l=2e+06u w=2e+06u
.ends

.subckt sky130_fd_pr__cap_mim_m3_2_FJK8MM.gds_8.0_16.0 c2_100_100# m4_0_0#
X0 c2_100_100# m4_0_0# sky130_fd_pr__cap_mim_m3_2 l=2e+06u w=2e+06u
.ends

.subckt sky130_fd_pr__cap_mim_m3_2_FJK8MM.gds_20.0_4.0 c2_100_100# m4_0_0#
X0 c2_100_100# m4_0_0# sky130_fd_pr__cap_mim_m3_2 l=2e+06u w=2e+06u
.ends

.subckt sky130_fd_pr__cap_mim_m3_2_FJK8MM.gds_28.0_24.0 c2_100_100# m4_0_0#
X0 c2_100_100# m4_0_0# sky130_fd_pr__cap_mim_m3_2 l=2e+06u w=2e+06u
.ends

.subckt sky130_fd_pr__cap_mim_m3_2_FJK8MM.gds_12.0_24.0 c2_100_100# m4_0_0#
X0 c2_100_100# m4_0_0# sky130_fd_pr__cap_mim_m3_2 l=2e+06u w=2e+06u
.ends

.subckt sky130_fd_pr__cap_mim_m3_2_FJK8MM.gds_8.0_28.0 c2_100_100# m4_0_0#
X0 c2_100_100# m4_0_0# sky130_fd_pr__cap_mim_m3_2 l=2e+06u w=2e+06u
.ends

.subckt sky130_fd_pr__cap_mim_m3_2_FJK8MM.gds_16.0_20.0 c2_100_100# m4_0_0#
X0 c2_100_100# m4_0_0# sky130_fd_pr__cap_mim_m3_2 l=2e+06u w=2e+06u
.ends

.subckt sky130_fd_pr__cap_mim_m3_2_FJK8MM.gds_20.0_16.0 c2_100_100# m4_0_0#
X0 c2_100_100# m4_0_0# sky130_fd_pr__cap_mim_m3_2 l=2e+06u w=2e+06u
.ends

.subckt sky130_fd_pr__cap_mim_m3_2_FJK8MM.gds_24.0_12.0 c2_100_100# m4_0_0#
X0 c2_100_100# m4_0_0# sky130_fd_pr__cap_mim_m3_2 l=2e+06u w=2e+06u
.ends

.subckt sky130_fd_pr__cap_mim_m3_2_FJK8MM.gds_8.0_4.0 c2_100_100# m4_0_0#
X0 c2_100_100# m4_0_0# sky130_fd_pr__cap_mim_m3_2 l=2e+06u w=2e+06u
.ends

.subckt sky130_fd_pr__cap_mim_m3_2_FJK8MM.gds_16.0_32.0 c2_100_100# m4_0_0#
X0 c2_100_100# m4_0_0# sky130_fd_pr__cap_mim_m3_2 l=2e+06u w=2e+06u
.ends

.subckt sky130_fd_pr__cap_mim_m3_2_FJK8MM.gds_4.0_4.0 c2_100_100# m4_0_0#
X0 c2_100_100# m4_0_0# sky130_fd_pr__cap_mim_m3_2 l=2e+06u w=2e+06u
.ends

.subckt sky130_fd_pr__cap_mim_m3_2_FJK8MM.gds_20.0_28.0 c2_100_100# m4_0_0#
X0 c2_100_100# m4_0_0# sky130_fd_pr__cap_mim_m3_2 l=2e+06u w=2e+06u
.ends

.subckt sky130_fd_pr__cap_mim_m3_2_FJK8MM.gds_4.0_16.0 c2_100_100# m4_0_0#
X0 c2_100_100# m4_0_0# sky130_fd_pr__cap_mim_m3_2 l=2e+06u w=2e+06u
.ends

.subckt sky130_fd_pr__cap_mim_m3_2_FJK8MM.gds_32.0_4.0 c2_100_100# m4_0_0#
X0 c2_100_100# m4_0_0# sky130_fd_pr__cap_mim_m3_2 l=2e+06u w=2e+06u
.ends

.subckt sky130_fd_pr__cap_mim_m3_2_FJK8MM.gds_24.0_24.0 c2_100_100# m4_0_0#
X0 c2_100_100# m4_0_0# sky130_fd_pr__cap_mim_m3_2 l=2e+06u w=2e+06u
.ends

.subckt sky130_fd_pr__cap_mim_m3_2_FJK8MM.gds_8.0_12.0 c2_100_100# m4_0_0#
X0 c2_100_100# m4_0_0# sky130_fd_pr__cap_mim_m3_2 l=2e+06u w=2e+06u
.ends

.subckt sky130_fd_pr__cap_mim_m3_2_FJK8MM.gds_0_16.0 c2_100_100# m4_0_0#
X0 c2_100_100# m4_0_0# sky130_fd_pr__cap_mim_m3_2 l=2e+06u w=2e+06u
.ends

.subckt sky130_fd_pr__cap_mim_m3_2_FJK8MM.gds_28.0_20.0 c2_100_100# m4_0_0#
X0 c2_100_100# m4_0_0# sky130_fd_pr__cap_mim_m3_2 l=2e+06u w=2e+06u
.ends

.subckt sky130_fd_pr__cap_mim_m3_2_FJK8MM.gds_32.0_16.0 c2_100_100# m4_0_0#
X0 c2_100_100# m4_0_0# sky130_fd_pr__cap_mim_m3_2 l=2e+06u w=2e+06u
.ends

.subckt sky130_fd_pr__cap_mim_m3_2_FJK8MM.gds_16.0_0 c2_100_100# m4_0_0#
X0 c2_100_100# m4_0_0# sky130_fd_pr__cap_mim_m3_2 l=2e+06u w=2e+06u
.ends

.subckt sky130_fd_pr__cap_mim_m3_2_FJK8MM.gds_8.0_0 c2_100_100# m4_0_0#
X0 c2_100_100# m4_0_0# sky130_fd_pr__cap_mim_m3_2 l=2e+06u w=2e+06u
.ends

.subckt sky130_fd_pr__cap_mim_m3_2_FJK8MM.gds_4.0_28.0 c2_100_100# m4_0_0#
X0 c2_100_100# m4_0_0# sky130_fd_pr__cap_mim_m3_2 l=2e+06u w=2e+06u
.ends

.subckt sky130_fd_pr__cap_mim_m3_2_FJK8MM.gds_12.0_20.0 c2_100_100# m4_0_0#
X0 c2_100_100# m4_0_0# sky130_fd_pr__cap_mim_m3_2 l=2e+06u w=2e+06u
.ends

.subckt sky130_fd_pr__cap_mim_m3_2_FJK8MM.gds_8.0_24.0 c2_100_100# m4_0_0#
X0 c2_100_100# m4_0_0# sky130_fd_pr__cap_mim_m3_2 l=2e+06u w=2e+06u
.ends

.subckt sky130_fd_pr__cap_mim_m3_2_FJK8MM.gds_0_28.0 c2_100_100# m4_0_0#
X0 c2_100_100# m4_0_0# sky130_fd_pr__cap_mim_m3_2 l=2e+06u w=2e+06u
.ends

.subckt sky130_fd_pr__cap_mim_m3_2_FJK8MM.gds_28.0_32.0 c2_100_100# m4_0_0#
X0 c2_100_100# m4_0_0# sky130_fd_pr__cap_mim_m3_2 l=2e+06u w=2e+06u
.ends

.subckt sky130_fd_pr__cap_mim_m3_2_FJK8MM.gds_20.0_12.0 c2_100_100# m4_0_0#
X0 c2_100_100# m4_0_0# sky130_fd_pr__cap_mim_m3_2 l=2e+06u w=2e+06u
.ends

.subckt sky130_fd_pr__cap_mim_m3_2_FJK8MM.gds_0_8.0 c2_100_100# m4_0_0#
X0 c2_100_100# m4_0_0# sky130_fd_pr__cap_mim_m3_2 l=2e+06u w=2e+06u
.ends

.subckt sky130_fd_pr__cap_mim_m3_2_FJK8MM.gds_32.0_28.0 c2_100_100# m4_0_0#
X0 c2_100_100# m4_0_0# sky130_fd_pr__cap_mim_m3_2 l=2e+06u w=2e+06u
.ends

.subckt sky130_fd_pr__cap_mim_m3_2_FJK8MM.gds_12.0_32.0 c2_100_100# m4_0_0#
X0 c2_100_100# m4_0_0# sky130_fd_pr__cap_mim_m3_2 l=2e+06u w=2e+06u
.ends

.subckt sky130_fd_pr__cap_mim_m3_2_FJK8MM.gds_28.0_0 c2_100_100# m4_0_0#
X0 c2_100_100# m4_0_0# sky130_fd_pr__cap_mim_m3_2 l=2e+06u w=2e+06u
.ends

.subckt sky130_fd_pr__cap_mim_m3_2_FJK8MM.gds_12.0_0 c2_100_100# m4_0_0#
X0 c2_100_100# m4_0_0# sky130_fd_pr__cap_mim_m3_2 l=2e+06u w=2e+06u
.ends

.subckt sky130_fd_pr__cap_mim_m3_2_FJK8MM.gds_4.0_0 c2_100_100# m4_0_0#
X0 c2_100_100# m4_0_0# sky130_fd_pr__cap_mim_m3_2 l=2e+06u w=2e+06u
.ends

.subckt sky130_fd_pr__cap_mim_m3_2_FJK8MM.gds_20.0_24.0 c2_100_100# m4_0_0#
X0 c2_100_100# m4_0_0# sky130_fd_pr__cap_mim_m3_2 l=2e+06u w=2e+06u
.ends

.subckt sky130_fd_pr__cap_mim_m3_2_FJK8MM.gds_4.0_12.0 c2_100_100# m4_0_0#
X0 c2_100_100# m4_0_0# sky130_fd_pr__cap_mim_m3_2 l=2e+06u w=2e+06u
.ends

.subckt sky130_fd_pr__cap_mim_m3_2_FJK8MM.gds_24.0_20.0 c2_100_100# m4_0_0#
X0 c2_100_100# m4_0_0# sky130_fd_pr__cap_mim_m3_2 l=2e+06u w=2e+06u
.ends

.subckt sky130_fd_pr__cap_mim_m3_2_FJK8MM.gds_0_0 c2_100_100# m4_0_0#
X0 c2_100_100# m4_0_0# sky130_fd_pr__cap_mim_m3_2 l=2e+06u w=2e+06u
.ends

.subckt sky130_fd_pr__cap_mim_m3_2_FJK8MM.gds_0_12.0 c2_100_100# m4_0_0#
X0 c2_100_100# m4_0_0# sky130_fd_pr__cap_mim_m3_2 l=2e+06u w=2e+06u
.ends

.subckt sky130_fd_pr__cap_mim_m3_2_FJK8MM.gds_32.0_12.0 c2_100_100# m4_0_0#
X0 c2_100_100# m4_0_0# sky130_fd_pr__cap_mim_m3_2 l=2e+06u w=2e+06u
.ends

.subckt sky130_fd_pr__cap_mim_m3_2_FJK8MM.gds_4.0_24.0 c2_100_100# m4_0_0#
X0 c2_100_100# m4_0_0# sky130_fd_pr__cap_mim_m3_2 l=2e+06u w=2e+06u
.ends

.subckt sky130_fd_pr__cap_mim_m3_2_FJK8MM.gds_24.0_0 c2_100_100# m4_0_0#
X0 c2_100_100# m4_0_0# sky130_fd_pr__cap_mim_m3_2 l=2e+06u w=2e+06u
.ends

.subckt sky130_fd_pr__cap_mim_m3_2_FJK8MM.gds_24.0_32.0 c2_100_100# m4_0_0#
X0 c2_100_100# m4_0_0# sky130_fd_pr__cap_mim_m3_2 l=2e+06u w=2e+06u
.ends

.subckt sky130_fd_pr__cap_mim_m3_2_FJK8MM.gds_8.0_20.0 c2_100_100# m4_0_0#
X0 c2_100_100# m4_0_0# sky130_fd_pr__cap_mim_m3_2 l=2e+06u w=2e+06u
.ends

.subckt sky130_fd_pr__cap_mim_m3_2_FJK8MM.gds_0_24.0 c2_100_100# m4_0_0#
X0 c2_100_100# m4_0_0# sky130_fd_pr__cap_mim_m3_2 l=2e+06u w=2e+06u
.ends

.subckt sky130_fd_pr__cap_mim_m3_2_FJK8MM.gds_16.0_8.0 c2_100_100# m4_0_0#
X0 c2_100_100# m4_0_0# sky130_fd_pr__cap_mim_m3_2 l=2e+06u w=2e+06u
.ends

.subckt sky130_fd_pr__cap_mim_m3_2_FJK8MM.gds_16.0_16.0 c2_100_100# m4_0_0#
X0 c2_100_100# m4_0_0# sky130_fd_pr__cap_mim_m3_2 l=2e+06u w=2e+06u
.ends

.subckt sky130_fd_pr__cap_mim_m3_2_FJK8MM.gds_32.0_24.0 c2_100_100# m4_0_0#
X0 c2_100_100# m4_0_0# sky130_fd_pr__cap_mim_m3_2 l=2e+06u w=2e+06u
.ends

.subckt sky130_fd_pr__cap_mim_m3_2_FJK8MM.gds_0_4.0 c2_100_100# m4_0_0#
X0 c2_100_100# m4_0_0# sky130_fd_pr__cap_mim_m3_2 l=2e+06u w=2e+06u
.ends

.subckt sky130_fd_pr__cap_mim_m3_2_FJK8MM.gds_12.0_8.0 c2_100_100# m4_0_0#
X0 c2_100_100# m4_0_0# sky130_fd_pr__cap_mim_m3_2 l=2e+06u w=2e+06u
.ends

.subckt sky130_fd_pr__cap_mim_m3_2_FJK8MM.gds_8.0_32.0 c2_100_100# m4_0_0#
X0 c2_100_100# m4_0_0# sky130_fd_pr__cap_mim_m3_2 l=2e+06u w=2e+06u
.ends

.subckt sky130_fd_pr__cap_mim_m3_2_FJK8MM.gds_16.0_28.0 c2_100_100# m4_0_0#
X0 c2_100_100# m4_0_0# sky130_fd_pr__cap_mim_m3_2 l=2e+06u w=2e+06u
.ends

.subckt sky130_fd_pr__cap_mim_m3_2_FJK8MM.gds_20.0_20.0 c2_100_100# m4_0_0#
X0 c2_100_100# m4_0_0# sky130_fd_pr__cap_mim_m3_2 l=2e+06u w=2e+06u
.ends

.subckt sky130_fd_pr__cap_mim_m3_2_FJK8MM.gds_20.0_0 c2_100_100# m4_0_0#
X0 c2_100_100# m4_0_0# sky130_fd_pr__cap_mim_m3_2 l=2e+06u w=2e+06u
.ends

.subckt sky130_fd_pr__cap_mim_m3_2_FJK8MM.gds_20.0_32.0 c2_100_100# m4_0_0#
X0 c2_100_100# m4_0_0# sky130_fd_pr__cap_mim_m3_2 l=2e+06u w=2e+06u
.ends

.subckt sky130_fd_pr__cap_mim_m3_2_FJK8MM.gds_28.0_16.0 c2_100_100# m4_0_0#
X0 c2_100_100# m4_0_0# sky130_fd_pr__cap_mim_m3_2 l=2e+06u w=2e+06u
.ends

.subckt sky130_fd_pr__cap_mim_m3_2_FJK8MM.gds_4.0_20.0 c2_100_100# m4_0_0#
X0 c2_100_100# m4_0_0# sky130_fd_pr__cap_mim_m3_2 l=2e+06u w=2e+06u
.ends

.subckt single_mimcap_array$1 extrude_95c5cb33_0/m4_n300_500# extrude_df9db8c3_0/m5_n300_780#
Xsky130_fd_pr__cap_mim_m3_2_FJK8MM.gds_28.0_8.0_0 extrude_df9db8c3_0/m5_n300_780#
+ extrude_95c5cb33_0/m4_n300_500# sky130_fd_pr__cap_mim_m3_2_FJK8MM.gds_28.0_8.0
Xsky130_fd_pr__cap_mim_m3_2_FJK8MM.gds_12.0_16.0_0 extrude_df9db8c3_0/m5_n300_780#
+ extrude_95c5cb33_0/m4_n300_500# sky130_fd_pr__cap_mim_m3_2_FJK8MM.gds_12.0_16.0
Xsky130_fd_pr__cap_mim_m3_2_FJK8MM.gds_0_20.0_0 extrude_df9db8c3_0/m5_n300_780# extrude_95c5cb33_0/m4_n300_500#
+ sky130_fd_pr__cap_mim_m3_2_FJK8MM.gds_0_20.0
Xsky130_fd_pr__cap_mim_m3_2_FJK8MM.gds_32.0_0_0 extrude_df9db8c3_0/m5_n300_780# extrude_95c5cb33_0/m4_n300_500#
+ sky130_fd_pr__cap_mim_m3_2_FJK8MM.gds_32.0_0
Xsky130_fd_pr__cap_mim_m3_2_FJK8MM.gds_24.0_8.0_0 extrude_df9db8c3_0/m5_n300_780#
+ extrude_95c5cb33_0/m4_n300_500# sky130_fd_pr__cap_mim_m3_2_FJK8MM.gds_24.0_8.0
Xsky130_fd_pr__cap_mim_m3_2_FJK8MM.gds_16.0_4.0_0 extrude_df9db8c3_0/m5_n300_780#
+ extrude_95c5cb33_0/m4_n300_500# sky130_fd_pr__cap_mim_m3_2_FJK8MM.gds_16.0_4.0
Xsky130_fd_pr__cap_mim_m3_2_FJK8MM.gds_16.0_12.0_0 extrude_df9db8c3_0/m5_n300_780#
+ extrude_95c5cb33_0/m4_n300_500# sky130_fd_pr__cap_mim_m3_2_FJK8MM.gds_16.0_12.0
Xsky130_fd_pr__cap_mim_m3_2_FJK8MM.gds_20.0_8.0_0 extrude_df9db8c3_0/m5_n300_780#
+ extrude_95c5cb33_0/m4_n300_500# sky130_fd_pr__cap_mim_m3_2_FJK8MM.gds_20.0_8.0
Xsky130_fd_pr__cap_mim_m3_2_FJK8MM.gds_32.0_20.0_0 extrude_df9db8c3_0/m5_n300_780#
+ extrude_95c5cb33_0/m4_n300_500# sky130_fd_pr__cap_mim_m3_2_FJK8MM.gds_32.0_20.0
Xsky130_fd_pr__cap_mim_m3_2_FJK8MM.gds_28.0_28.0_0 extrude_df9db8c3_0/m5_n300_780#
+ extrude_95c5cb33_0/m4_n300_500# sky130_fd_pr__cap_mim_m3_2_FJK8MM.gds_28.0_28.0
Xsky130_fd_pr__cap_mim_m3_2_FJK8MM.gds_12.0_4.0_0 extrude_df9db8c3_0/m5_n300_780#
+ extrude_95c5cb33_0/m4_n300_500# sky130_fd_pr__cap_mim_m3_2_FJK8MM.gds_12.0_4.0
Xsky130_fd_pr__cap_mim_m3_2_FJK8MM.gds_4.0_32.0_0 extrude_df9db8c3_0/m5_n300_780#
+ extrude_95c5cb33_0/m4_n300_500# sky130_fd_pr__cap_mim_m3_2_FJK8MM.gds_4.0_32.0
Xsky130_fd_pr__cap_mim_m3_2_FJK8MM.gds_12.0_28.0_0 extrude_df9db8c3_0/m5_n300_780#
+ extrude_95c5cb33_0/m4_n300_500# sky130_fd_pr__cap_mim_m3_2_FJK8MM.gds_12.0_28.0
Xsky130_fd_pr__cap_mim_m3_2_FJK8MM.gds_0_32.0_0 extrude_df9db8c3_0/m5_n300_780# extrude_95c5cb33_0/m4_n300_500#
+ sky130_fd_pr__cap_mim_m3_2_FJK8MM.gds_0_32.0
Xsky130_fd_pr__cap_mim_m3_2_FJK8MM.gds_16.0_24.0_0 extrude_df9db8c3_0/m5_n300_780#
+ extrude_95c5cb33_0/m4_n300_500# sky130_fd_pr__cap_mim_m3_2_FJK8MM.gds_16.0_24.0
Xsky130_fd_pr__cap_mim_m3_2_FJK8MM.gds_32.0_32.0_0 extrude_df9db8c3_0/m5_n300_780#
+ extrude_95c5cb33_0/m4_n300_500# sky130_fd_pr__cap_mim_m3_2_FJK8MM.gds_32.0_32.0
Xsky130_fd_pr__cap_mim_m3_2_FJK8MM.gds_24.0_16.0_0 extrude_df9db8c3_0/m5_n300_780#
+ extrude_95c5cb33_0/m4_n300_500# sky130_fd_pr__cap_mim_m3_2_FJK8MM.gds_24.0_16.0
Xsky130_fd_pr__cap_mim_m3_2_FJK8MM.gds_8.0_8.0_0 extrude_df9db8c3_0/m5_n300_780# extrude_95c5cb33_0/m4_n300_500#
+ sky130_fd_pr__cap_mim_m3_2_FJK8MM.gds_8.0_8.0
Xsky130_fd_pr__cap_mim_m3_2_FJK8MM.gds_28.0_12.0_0 extrude_df9db8c3_0/m5_n300_780#
+ extrude_95c5cb33_0/m4_n300_500# sky130_fd_pr__cap_mim_m3_2_FJK8MM.gds_28.0_12.0
Xsky130_fd_pr__cap_mim_m3_2_FJK8MM.gds_4.0_8.0_0 extrude_df9db8c3_0/m5_n300_780# extrude_95c5cb33_0/m4_n300_500#
+ sky130_fd_pr__cap_mim_m3_2_FJK8MM.gds_4.0_8.0
Xsky130_fd_pr__cap_mim_m3_2_FJK8MM.gds_28.0_4.0_0 extrude_df9db8c3_0/m5_n300_780#
+ extrude_95c5cb33_0/m4_n300_500# sky130_fd_pr__cap_mim_m3_2_FJK8MM.gds_28.0_4.0
Xsky130_fd_pr__cap_mim_m3_2_FJK8MM.gds_32.0_8.0_0 extrude_df9db8c3_0/m5_n300_780#
+ extrude_95c5cb33_0/m4_n300_500# sky130_fd_pr__cap_mim_m3_2_FJK8MM.gds_32.0_8.0
Xsky130_fd_pr__cap_mim_m3_2_FJK8MM.gds_12.0_12.0_0 extrude_df9db8c3_0/m5_n300_780#
+ extrude_95c5cb33_0/m4_n300_500# sky130_fd_pr__cap_mim_m3_2_FJK8MM.gds_12.0_12.0
Xsky130_fd_pr__cap_mim_m3_2_FJK8MM.gds_24.0_4.0_0 extrude_df9db8c3_0/m5_n300_780#
+ extrude_95c5cb33_0/m4_n300_500# sky130_fd_pr__cap_mim_m3_2_FJK8MM.gds_24.0_4.0
Xsky130_fd_pr__cap_mim_m3_2_FJK8MM.gds_24.0_28.0_0 extrude_df9db8c3_0/m5_n300_780#
+ extrude_95c5cb33_0/m4_n300_500# sky130_fd_pr__cap_mim_m3_2_FJK8MM.gds_24.0_28.0
Xsky130_fd_pr__cap_mim_m3_2_FJK8MM.gds_8.0_16.0_0 extrude_df9db8c3_0/m5_n300_780#
+ extrude_95c5cb33_0/m4_n300_500# sky130_fd_pr__cap_mim_m3_2_FJK8MM.gds_8.0_16.0
Xsky130_fd_pr__cap_mim_m3_2_FJK8MM.gds_20.0_4.0_0 extrude_df9db8c3_0/m5_n300_780#
+ extrude_95c5cb33_0/m4_n300_500# sky130_fd_pr__cap_mim_m3_2_FJK8MM.gds_20.0_4.0
Xsky130_fd_pr__cap_mim_m3_2_FJK8MM.gds_28.0_24.0_0 extrude_df9db8c3_0/m5_n300_780#
+ extrude_95c5cb33_0/m4_n300_500# sky130_fd_pr__cap_mim_m3_2_FJK8MM.gds_28.0_24.0
Xsky130_fd_pr__cap_mim_m3_2_FJK8MM.gds_12.0_24.0_0 extrude_df9db8c3_0/m5_n300_780#
+ extrude_95c5cb33_0/m4_n300_500# sky130_fd_pr__cap_mim_m3_2_FJK8MM.gds_12.0_24.0
Xsky130_fd_pr__cap_mim_m3_2_FJK8MM.gds_8.0_28.0_0 extrude_df9db8c3_0/m5_n300_780#
+ extrude_95c5cb33_0/m4_n300_500# sky130_fd_pr__cap_mim_m3_2_FJK8MM.gds_8.0_28.0
Xsky130_fd_pr__cap_mim_m3_2_FJK8MM.gds_16.0_20.0_0 extrude_df9db8c3_0/m5_n300_780#
+ extrude_95c5cb33_0/m4_n300_500# sky130_fd_pr__cap_mim_m3_2_FJK8MM.gds_16.0_20.0
Xsky130_fd_pr__cap_mim_m3_2_FJK8MM.gds_20.0_16.0_0 extrude_df9db8c3_0/m5_n300_780#
+ extrude_95c5cb33_0/m4_n300_500# sky130_fd_pr__cap_mim_m3_2_FJK8MM.gds_20.0_16.0
Xsky130_fd_pr__cap_mim_m3_2_FJK8MM.gds_24.0_12.0_0 extrude_df9db8c3_0/m5_n300_780#
+ extrude_95c5cb33_0/m4_n300_500# sky130_fd_pr__cap_mim_m3_2_FJK8MM.gds_24.0_12.0
Xsky130_fd_pr__cap_mim_m3_2_FJK8MM.gds_8.0_4.0_0 extrude_df9db8c3_0/m5_n300_780# extrude_95c5cb33_0/m4_n300_500#
+ sky130_fd_pr__cap_mim_m3_2_FJK8MM.gds_8.0_4.0
Xsky130_fd_pr__cap_mim_m3_2_FJK8MM.gds_16.0_32.0_0 extrude_df9db8c3_0/m5_n300_780#
+ extrude_95c5cb33_0/m4_n300_500# sky130_fd_pr__cap_mim_m3_2_FJK8MM.gds_16.0_32.0
Xsky130_fd_pr__cap_mim_m3_2_FJK8MM.gds_4.0_4.0_0 extrude_df9db8c3_0/m5_n300_780# extrude_95c5cb33_0/m4_n300_500#
+ sky130_fd_pr__cap_mim_m3_2_FJK8MM.gds_4.0_4.0
Xsky130_fd_pr__cap_mim_m3_2_FJK8MM.gds_20.0_28.0_0 extrude_df9db8c3_0/m5_n300_780#
+ extrude_95c5cb33_0/m4_n300_500# sky130_fd_pr__cap_mim_m3_2_FJK8MM.gds_20.0_28.0
Xsky130_fd_pr__cap_mim_m3_2_FJK8MM.gds_4.0_16.0_0 extrude_df9db8c3_0/m5_n300_780#
+ extrude_95c5cb33_0/m4_n300_500# sky130_fd_pr__cap_mim_m3_2_FJK8MM.gds_4.0_16.0
Xsky130_fd_pr__cap_mim_m3_2_FJK8MM.gds_32.0_4.0_0 extrude_df9db8c3_0/m5_n300_780#
+ extrude_95c5cb33_0/m4_n300_500# sky130_fd_pr__cap_mim_m3_2_FJK8MM.gds_32.0_4.0
Xsky130_fd_pr__cap_mim_m3_2_FJK8MM.gds_24.0_24.0_0 extrude_df9db8c3_0/m5_n300_780#
+ extrude_95c5cb33_0/m4_n300_500# sky130_fd_pr__cap_mim_m3_2_FJK8MM.gds_24.0_24.0
Xsky130_fd_pr__cap_mim_m3_2_FJK8MM.gds_8.0_12.0_0 extrude_df9db8c3_0/m5_n300_780#
+ extrude_95c5cb33_0/m4_n300_500# sky130_fd_pr__cap_mim_m3_2_FJK8MM.gds_8.0_12.0
Xsky130_fd_pr__cap_mim_m3_2_FJK8MM.gds_0_16.0_0 extrude_df9db8c3_0/m5_n300_780# extrude_95c5cb33_0/m4_n300_500#
+ sky130_fd_pr__cap_mim_m3_2_FJK8MM.gds_0_16.0
Xsky130_fd_pr__cap_mim_m3_2_FJK8MM.gds_28.0_20.0_0 extrude_df9db8c3_0/m5_n300_780#
+ extrude_95c5cb33_0/m4_n300_500# sky130_fd_pr__cap_mim_m3_2_FJK8MM.gds_28.0_20.0
Xsky130_fd_pr__cap_mim_m3_2_FJK8MM.gds_32.0_16.0_0 extrude_df9db8c3_0/m5_n300_780#
+ extrude_95c5cb33_0/m4_n300_500# sky130_fd_pr__cap_mim_m3_2_FJK8MM.gds_32.0_16.0
Xsky130_fd_pr__cap_mim_m3_2_FJK8MM.gds_16.0_0_0 extrude_df9db8c3_0/m5_n300_780# extrude_95c5cb33_0/m4_n300_500#
+ sky130_fd_pr__cap_mim_m3_2_FJK8MM.gds_16.0_0
Xsky130_fd_pr__cap_mim_m3_2_FJK8MM.gds_8.0_0_0 extrude_df9db8c3_0/m5_n300_780# extrude_95c5cb33_0/m4_n300_500#
+ sky130_fd_pr__cap_mim_m3_2_FJK8MM.gds_8.0_0
Xsky130_fd_pr__cap_mim_m3_2_FJK8MM.gds_4.0_28.0_0 extrude_df9db8c3_0/m5_n300_780#
+ extrude_95c5cb33_0/m4_n300_500# sky130_fd_pr__cap_mim_m3_2_FJK8MM.gds_4.0_28.0
Xsky130_fd_pr__cap_mim_m3_2_FJK8MM.gds_12.0_20.0_0 extrude_df9db8c3_0/m5_n300_780#
+ extrude_95c5cb33_0/m4_n300_500# sky130_fd_pr__cap_mim_m3_2_FJK8MM.gds_12.0_20.0
Xsky130_fd_pr__cap_mim_m3_2_FJK8MM.gds_8.0_24.0_0 extrude_df9db8c3_0/m5_n300_780#
+ extrude_95c5cb33_0/m4_n300_500# sky130_fd_pr__cap_mim_m3_2_FJK8MM.gds_8.0_24.0
Xsky130_fd_pr__cap_mim_m3_2_FJK8MM.gds_0_28.0_0 extrude_df9db8c3_0/m5_n300_780# extrude_95c5cb33_0/m4_n300_500#
+ sky130_fd_pr__cap_mim_m3_2_FJK8MM.gds_0_28.0
Xsky130_fd_pr__cap_mim_m3_2_FJK8MM.gds_28.0_32.0_0 extrude_df9db8c3_0/m5_n300_780#
+ extrude_95c5cb33_0/m4_n300_500# sky130_fd_pr__cap_mim_m3_2_FJK8MM.gds_28.0_32.0
Xsky130_fd_pr__cap_mim_m3_2_FJK8MM.gds_20.0_12.0_0 extrude_df9db8c3_0/m5_n300_780#
+ extrude_95c5cb33_0/m4_n300_500# sky130_fd_pr__cap_mim_m3_2_FJK8MM.gds_20.0_12.0
Xsky130_fd_pr__cap_mim_m3_2_FJK8MM.gds_0_8.0_0 extrude_df9db8c3_0/m5_n300_780# extrude_95c5cb33_0/m4_n300_500#
+ sky130_fd_pr__cap_mim_m3_2_FJK8MM.gds_0_8.0
Xsky130_fd_pr__cap_mim_m3_2_FJK8MM.gds_32.0_28.0_0 extrude_df9db8c3_0/m5_n300_780#
+ extrude_95c5cb33_0/m4_n300_500# sky130_fd_pr__cap_mim_m3_2_FJK8MM.gds_32.0_28.0
Xsky130_fd_pr__cap_mim_m3_2_FJK8MM.gds_12.0_32.0_0 extrude_df9db8c3_0/m5_n300_780#
+ extrude_95c5cb33_0/m4_n300_500# sky130_fd_pr__cap_mim_m3_2_FJK8MM.gds_12.0_32.0
Xsky130_fd_pr__cap_mim_m3_2_FJK8MM.gds_28.0_0_0 extrude_df9db8c3_0/m5_n300_780# extrude_95c5cb33_0/m4_n300_500#
+ sky130_fd_pr__cap_mim_m3_2_FJK8MM.gds_28.0_0
Xsky130_fd_pr__cap_mim_m3_2_FJK8MM.gds_12.0_0_0 extrude_df9db8c3_0/m5_n300_780# extrude_95c5cb33_0/m4_n300_500#
+ sky130_fd_pr__cap_mim_m3_2_FJK8MM.gds_12.0_0
Xsky130_fd_pr__cap_mim_m3_2_FJK8MM.gds_4.0_0_0 extrude_df9db8c3_0/m5_n300_780# extrude_95c5cb33_0/m4_n300_500#
+ sky130_fd_pr__cap_mim_m3_2_FJK8MM.gds_4.0_0
Xsky130_fd_pr__cap_mim_m3_2_FJK8MM.gds_20.0_24.0_0 extrude_df9db8c3_0/m5_n300_780#
+ extrude_95c5cb33_0/m4_n300_500# sky130_fd_pr__cap_mim_m3_2_FJK8MM.gds_20.0_24.0
Xsky130_fd_pr__cap_mim_m3_2_FJK8MM.gds_4.0_12.0_0 extrude_df9db8c3_0/m5_n300_780#
+ extrude_95c5cb33_0/m4_n300_500# sky130_fd_pr__cap_mim_m3_2_FJK8MM.gds_4.0_12.0
Xsky130_fd_pr__cap_mim_m3_2_FJK8MM.gds_24.0_20.0_0 extrude_df9db8c3_0/m5_n300_780#
+ extrude_95c5cb33_0/m4_n300_500# sky130_fd_pr__cap_mim_m3_2_FJK8MM.gds_24.0_20.0
Xsky130_fd_pr__cap_mim_m3_2_FJK8MM.gds_0_0_0 extrude_df9db8c3_0/m5_n300_780# extrude_95c5cb33_0/m4_n300_500#
+ sky130_fd_pr__cap_mim_m3_2_FJK8MM.gds_0_0
Xsky130_fd_pr__cap_mim_m3_2_FJK8MM.gds_0_12.0_0 extrude_df9db8c3_0/m5_n300_780# extrude_95c5cb33_0/m4_n300_500#
+ sky130_fd_pr__cap_mim_m3_2_FJK8MM.gds_0_12.0
Xsky130_fd_pr__cap_mim_m3_2_FJK8MM.gds_32.0_12.0_0 extrude_df9db8c3_0/m5_n300_780#
+ extrude_95c5cb33_0/m4_n300_500# sky130_fd_pr__cap_mim_m3_2_FJK8MM.gds_32.0_12.0
Xsky130_fd_pr__cap_mim_m3_2_FJK8MM.gds_4.0_24.0_0 extrude_df9db8c3_0/m5_n300_780#
+ extrude_95c5cb33_0/m4_n300_500# sky130_fd_pr__cap_mim_m3_2_FJK8MM.gds_4.0_24.0
Xsky130_fd_pr__cap_mim_m3_2_FJK8MM.gds_24.0_0_0 extrude_df9db8c3_0/m5_n300_780# extrude_95c5cb33_0/m4_n300_500#
+ sky130_fd_pr__cap_mim_m3_2_FJK8MM.gds_24.0_0
Xsky130_fd_pr__cap_mim_m3_2_FJK8MM.gds_24.0_32.0_0 extrude_df9db8c3_0/m5_n300_780#
+ extrude_95c5cb33_0/m4_n300_500# sky130_fd_pr__cap_mim_m3_2_FJK8MM.gds_24.0_32.0
Xsky130_fd_pr__cap_mim_m3_2_FJK8MM.gds_8.0_20.0_0 extrude_df9db8c3_0/m5_n300_780#
+ extrude_95c5cb33_0/m4_n300_500# sky130_fd_pr__cap_mim_m3_2_FJK8MM.gds_8.0_20.0
Xsky130_fd_pr__cap_mim_m3_2_FJK8MM.gds_0_24.0_0 extrude_df9db8c3_0/m5_n300_780# extrude_95c5cb33_0/m4_n300_500#
+ sky130_fd_pr__cap_mim_m3_2_FJK8MM.gds_0_24.0
Xsky130_fd_pr__cap_mim_m3_2_FJK8MM.gds_16.0_8.0_0 extrude_df9db8c3_0/m5_n300_780#
+ extrude_95c5cb33_0/m4_n300_500# sky130_fd_pr__cap_mim_m3_2_FJK8MM.gds_16.0_8.0
Xsky130_fd_pr__cap_mim_m3_2_FJK8MM.gds_16.0_16.0_0 extrude_df9db8c3_0/m5_n300_780#
+ extrude_95c5cb33_0/m4_n300_500# sky130_fd_pr__cap_mim_m3_2_FJK8MM.gds_16.0_16.0
Xsky130_fd_pr__cap_mim_m3_2_FJK8MM.gds_32.0_24.0_0 extrude_df9db8c3_0/m5_n300_780#
+ extrude_95c5cb33_0/m4_n300_500# sky130_fd_pr__cap_mim_m3_2_FJK8MM.gds_32.0_24.0
Xsky130_fd_pr__cap_mim_m3_2_FJK8MM.gds_0_4.0_0 extrude_df9db8c3_0/m5_n300_780# extrude_95c5cb33_0/m4_n300_500#
+ sky130_fd_pr__cap_mim_m3_2_FJK8MM.gds_0_4.0
Xsky130_fd_pr__cap_mim_m3_2_FJK8MM.gds_12.0_8.0_0 extrude_df9db8c3_0/m5_n300_780#
+ extrude_95c5cb33_0/m4_n300_500# sky130_fd_pr__cap_mim_m3_2_FJK8MM.gds_12.0_8.0
Xsky130_fd_pr__cap_mim_m3_2_FJK8MM.gds_8.0_32.0_0 extrude_df9db8c3_0/m5_n300_780#
+ extrude_95c5cb33_0/m4_n300_500# sky130_fd_pr__cap_mim_m3_2_FJK8MM.gds_8.0_32.0
Xsky130_fd_pr__cap_mim_m3_2_FJK8MM.gds_16.0_28.0_0 extrude_df9db8c3_0/m5_n300_780#
+ extrude_95c5cb33_0/m4_n300_500# sky130_fd_pr__cap_mim_m3_2_FJK8MM.gds_16.0_28.0
Xsky130_fd_pr__cap_mim_m3_2_FJK8MM.gds_20.0_20.0_0 extrude_df9db8c3_0/m5_n300_780#
+ extrude_95c5cb33_0/m4_n300_500# sky130_fd_pr__cap_mim_m3_2_FJK8MM.gds_20.0_20.0
Xsky130_fd_pr__cap_mim_m3_2_FJK8MM.gds_20.0_0_0 extrude_df9db8c3_0/m5_n300_780# extrude_95c5cb33_0/m4_n300_500#
+ sky130_fd_pr__cap_mim_m3_2_FJK8MM.gds_20.0_0
Xsky130_fd_pr__cap_mim_m3_2_FJK8MM.gds_20.0_32.0_0 extrude_df9db8c3_0/m5_n300_780#
+ extrude_95c5cb33_0/m4_n300_500# sky130_fd_pr__cap_mim_m3_2_FJK8MM.gds_20.0_32.0
Xsky130_fd_pr__cap_mim_m3_2_FJK8MM.gds_28.0_16.0_0 extrude_df9db8c3_0/m5_n300_780#
+ extrude_95c5cb33_0/m4_n300_500# sky130_fd_pr__cap_mim_m3_2_FJK8MM.gds_28.0_16.0
Xsky130_fd_pr__cap_mim_m3_2_FJK8MM.gds_4.0_20.0_0 extrude_df9db8c3_0/m5_n300_780#
+ extrude_95c5cb33_0/m4_n300_500# sky130_fd_pr__cap_mim_m3_2_FJK8MM.gds_4.0_20.0
.ends

.subckt x71_72_mimcap_array20 single_mimcap_array$1_7/extrude_df9db8c3_0/m5_n300_780#
+ single_mimcap_array$1_18/extrude_df9db8c3_0/m5_n300_780# single_mimcap_array$1_14/extrude_95c5cb33_0/m4_n300_500#
+ single_mimcap_array$1_5/extrude_95c5cb33_0/m4_n300_500# single_mimcap_array$1_19/extrude_95c5cb33_0/m4_n300_500#
+ single_mimcap_array$1_14/extrude_df9db8c3_0/m5_n300_780# single_mimcap_array$1_6/extrude_95c5cb33_0/m4_n300_500#
+ single_mimcap_array$1_5/extrude_df9db8c3_0/m5_n300_780# single_mimcap_array$1_11/extrude_95c5cb33_0/m4_n300_500#
+ single_mimcap_array$1_13/extrude_df9db8c3_0/m5_n300_780# single_mimcap_array$1_11/extrude_df9db8c3_0/m5_n300_780#
+ single_mimcap_array$1_10/extrude_95c5cb33_0/m4_n300_500# single_mimcap_array$1_0/extrude_df9db8c3_0/m5_n300_780#
+ single_mimcap_array$1_9/extrude_95c5cb33_0/m4_n300_500# single_mimcap_array$1_2/extrude_95c5cb33_0/m4_n300_500#
+ single_mimcap_array$1_19/extrude_df9db8c3_0/m5_n300_780# single_mimcap_array$1_17/extrude_95c5cb33_0/m4_n300_500#
+ single_mimcap_array$1_16/extrude_df9db8c3_0/m5_n300_780# single_mimcap_array$1_12/extrude_95c5cb33_0/m4_n300_500#
+ single_mimcap_array$1_6/extrude_df9db8c3_0/m5_n300_780# single_mimcap_array$1_4/extrude_df9db8c3_0/m5_n300_780#
+ single_mimcap_array$1_15/extrude_95c5cb33_0/m4_n300_500# single_mimcap_array$1_9/extrude_df9db8c3_0/m5_n300_780#
+ single_mimcap_array$1_8/extrude_95c5cb33_0/m4_n300_500# single_mimcap_array$1_18/extrude_95c5cb33_0/m4_n300_500#
+ single_mimcap_array$1_1/extrude_95c5cb33_0/m4_n300_500# single_mimcap_array$1_3/extrude_95c5cb33_0/m4_n300_500#
+ single_mimcap_array$1_13/extrude_95c5cb33_0/m4_n300_500# single_mimcap_array$1_1/extrude_df9db8c3_0/m5_n300_780#
+ single_mimcap_array$1_8/extrude_df9db8c3_0/m5_n300_780# single_mimcap_array$1_0/extrude_95c5cb33_0/m4_n300_500#
+ single_mimcap_array$1_15/extrude_df9db8c3_0/m5_n300_780# single_mimcap_array$1_4/extrude_95c5cb33_0/m4_n300_500#
+ single_mimcap_array$1_7/extrude_95c5cb33_0/m4_n300_500# single_mimcap_array$1_16/extrude_95c5cb33_0/m4_n300_500#
+ single_mimcap_array$1_12/extrude_df9db8c3_0/m5_n300_780# single_mimcap_array$1_10/extrude_df9db8c3_0/m5_n300_780#
+ single_mimcap_array$1_3/extrude_df9db8c3_0/m5_n300_780# single_mimcap_array$1_17/extrude_df9db8c3_0/m5_n300_780#
+ single_mimcap_array$1_2/extrude_df9db8c3_0/m5_n300_780#
Xsingle_mimcap_array$1_12 single_mimcap_array$1_12/extrude_95c5cb33_0/m4_n300_500#
+ single_mimcap_array$1_12/extrude_df9db8c3_0/m5_n300_780# single_mimcap_array$1
Xsingle_mimcap_array$1_0 single_mimcap_array$1_0/extrude_95c5cb33_0/m4_n300_500# single_mimcap_array$1_0/extrude_df9db8c3_0/m5_n300_780#
+ single_mimcap_array$1
Xsingle_mimcap_array$1_1 single_mimcap_array$1_1/extrude_95c5cb33_0/m4_n300_500# single_mimcap_array$1_1/extrude_df9db8c3_0/m5_n300_780#
+ single_mimcap_array$1
Xsingle_mimcap_array$1_13 single_mimcap_array$1_13/extrude_95c5cb33_0/m4_n300_500#